edgeloadcantilever16p4dsg.out
comment
linearstatic nsteps 1 nmodules 1
errorcheck
domain 3dshell
OutputManager tstep_all dofman_all element_all
ndofman 16 nelem 1 ncrosssect 1 nmat 1  nbc 4 nic 0 nltf 1 nset 4
node 1 coords 4 0 0 0 1
node 2 coords 4 0.0208333333333333 0 0 1
node 3 coords 4 0.0625 0 0 1
node 4 coords 4 0.125 0 0 1
node 5 coords 4 0.208333333333333 0 0 1
node 6 coords 4 0.291666666666667 0 0 1
node 7 coords 4 0.375 0 0 1
node 8 coords 4 0.458333333333333 0 0 1
node 9 coords 4 0.541666666666667 0 0 1
node 10 coords 4 0.625 0 0 1
node 11 coords 4 0.708333333333333 0 0 1
node 12 coords 4 0.791666666666667 0 0 1
node 13 coords 4 0.875 0 0 1
node 14 coords 4 0.9375 0 0 1
node 15 coords 4 0.979166666666667 0 0 1
node 16 coords 4 1 0 0 1
NURBSBeam3dElementDsg 1 nodes 16 1 2 3 4 5 6 7 8 9 10 11 12 13 14 15 16 crosssect 1 mat 1 knotvectoru 13 0.0 1.0 2.0 3.0 4.0 5.0 6.0 7.0 8.0 9.0 10.0 11.0 12.0 knotmultiplicityu 13 5 1 1 1 1 1 1 1 1 1 1 1 5 degree 1 4 nip 5 zaxis 3 0 0 1
SimpleCS 1 area 0.0942477796 Iy 1.178097e-3  Iz 1.178097e-3  Ik 2.35619e-03 shearareay 0.620229 shearareaz  0.620229
IsoLE 1 d 1. E 200.000000e+09 n 0.30 talpha 0.000012
BoundaryCondition  1 loadTimeFunction 1 dofs 6 1 2 3 4 5 6 values 6 0 0 0 0 0 0 set 3
NodalLoad 2 loadTimeFunction 1 dofs 6 1 2 3 4 5 6 Components 6 0 0 0 0 0 0 set 4
ConstantEdgeLoad 3 loadTimeFunction 1 dofs 6 1 2 3 4 5 6 Components 6 0 10 0 0 0 10 loadType 3 set 1
DeadWeight 4 loadTimeFunction 1 dofs 6 1 2 3 4 5 6 Components 6 0 0 0 0 0 0 set 2
ConstantFunction 1 f(t) 1.0
set 1 elementedges 2 1 1
set 2 elementranges {1} 
set 3 nodes 1 1
set 4 nodes 1 16
#
#
#%BEGIN_CHECK% tolerance 1.e-11
##isogeometric cantilever beam
##
#NODE tStep 1 number 16 dof 1 unknown d value 0.00000000e+00
#NODE tStep 1 number 16 dof 2 unknown d value 1.95570749e-08
#NODE tStep 1 number 16 dof 3 unknown d value 0.00000000e+00
#NODE tStep 1 number 16 dof 4 unknown d value 0.00000000e+00
#NODE tStep 1 number 16 dof 5 unknown d value 0.00000000e+00
#NODE tStep 1 number 16 dof 6 unknown d value 2.82942180e-08
##
#ELEMENT tStep 1 number 1 gp 1 keyword 4 component 1  value  0.0000e+00
#ELEMENT tStep 1 number 1 gp 1 keyword 4 component 2  value  2.0950e-10
#ELEMENT tStep 1 number 1 gp 1 keyword 4 component 3  value  0.0000e+00
#ELEMENT tStep 1 number 1 gp 1 keyword 1 component 1  value 0.0000e+00
##ELEMENT tStep 1 number 1 gp 1 keyword 1 component 2  value 9.9952e+00
#ELEMENT tStep 1 number 1 gp 1 keyword 1 component 3  value 0.0000e+00
##
#%END_CHECK%
